Circuit: * C:\users\ama\Documents\Eisenbahn\EX-IOLC_proxy\AlbertSpice.asc

Limiting rise time of source v2 to 5e-008
Limiting fall time of source v2 to 5e-008
Limiting rise time of source v1 to 5e-008
Limiting fall time of source v1 to 5e-008
WARNING: Node N005 is floating.

Direct Newton iteration for .op point succeeded.

Date: Tue Apr 07 15:20:34 2026
Total elapsed time: 0.110 seconds.

tnom = 27
temp = 27
method = modified trap
totiter = 4756
traniter = 4746
tranpoints = 1491
accept = 1367
rejected = 124
matrix size = 19
fillins = 13
solver = Normal
Matrix Compiler1: 1.87 KB object code size  0.4/0.3/[0.2]
Matrix Compiler2: 1.73 KB object code size  0.2/0.3/[0.2]

